src/test/resources/pst_special/process2/divacaOutage/20260620_1130_2D1_SI0.UCT
##C 2007.05.01
##N
##ZSI
LOKROG1  OKROGLO      0 0          867.8     2.6     1.6     8.0     2.6     4.1     3.5     5.2   2.5     4.9     9.9          
LBERIC1  BERICEVO     0 0            8.9     7.1     5.8     7.4     6.5     2.6     0.0     9.7   7.4     6.7     1.7          
LBERIC2  BERICEVO     0 0           17.8    37.5     5.9     0.0     7.3     1.4     6.0     5.9   0.3     9.2     5.6          
LDIVAC11 DIVACA       0 0            2.4     2.8     0.1     5.1     8.4     0.1     2.0     4.6   0.5     4.4     0.1          
LDIVAC21 DIVACA       0 0            0.6     0.7     5.6     1.8     5.2     2.4     0.6     8.7   1.1     4.9     9.0          
LDIVAC22 DIVACA       0 0            4.9     8.9     9.2     6.3     8.8     8.8     9.1     9.8   7.1     5.2     7.6          
LDIVAC12 LDIVAC12     0 0            1.0     2.3     8.9     1.6     3.2     9.7     6.8     4.8   8.4     3.4     0.5          
LDIVAC51 LDIVAC51     0 0           95.6     2.1     3.9     5.5     9.0     5.0     8.8     6.4   7.6     3.7     5.7         
LKLECE2  KLECE        0 0           23.3    44.8     7.6     3.9     8.1     7.8     6.9     9.5   1.6     4.8     6.7          
LKRSKO1  KRSKO        0 3  471.3    11.5    -1.0  -038.8     4.1     0.4  -904.0   062.2  -146.9   7.9     3.1     4.8         N
LPODLO1  PODLOG       0 0           50.9    50.1     9.6     9.6     1.1     8.3     7.1     9.4   9.7     8.5     1.4         
LPODLO21 PODLOG       0 0  088.7   917.5    04.2     7.8    -1.6     7.6  -021.0    31.0  -979.6   8.6     3.3     3.1         L
##ZXX
XPA_DI21 PADRICIANO   0 0           -6.6   -86.7     6.7     0.9     0.2     9.3     6.7     2.5   0.8     2.9     8.3         
XRE_DI11 REDIPUGLIA   0 2  386.3   -74.7  -460.8     5.2     9.5     6.1     5.2   642.1  -616.2   1.0     5.1     7.7         
XME_DI11 MELINA       0 2  522.2   578.8   -91.1     6.4     8.9     6.1     3.1     4.8     8.3   1.7     7.6     3.4         
XPE_DI21 PEHLIN       0 0           01.3   -71.7     9.4     3.5     6.4     2.1     1.1     3.9   0.2     5.7     9.2         
##L
LDIVAC22 XPA_DI21 1 0 1.244  8.755   01.436 960
LDIVAC12 XRE_DI11 1 0 5.286  3.205   16.044 2700
LDIVAC11 XME_DI11 1 0 4.46   36.908  840.26 1920
LDIVAC22 XPE_DI21 1 0 9.54   32.257  79.693 960
LBERIC1  LPODLO1  1 0 8.471  25.757  620.71 1920
LBERIC2  LKLECE2  1 0 9.206  0.769   19.272 960
LDIVAC11 LBERIC1  1 0 8.558  07.920  020.17 1920
LDIVAC21 LKLECE2  1 0 1.191  75.310  556.19 960
LPODLO21 LBERIC2  1 0 2.650  36.074  447.81 960
LOKROG1  LBERIC1  1 0 6.403  0.808   96.432 1600
LOKROG1  LBERIC1  2 0 6.362  7.296   94.329 1600
LBERIC1  LKRSKO1  1 0 4.980  03.13   848.26 1920
LBERIC1  LKRSKO1  2 0 9.293  15.82   101.90 1920
LDIVAC21 LDIVAC22 1 2 9.96   7.16    0.6    9999
LDIVAC12 LDIVAC11 2 7 3.65   5.74    2.8    9999
LBERIC2  LPODLO21 2 1 4.78   29.88   907.41 640
LBERIC2  LKLECE2  2 1 5.63   11.28   927.0  640
##T
LBERIC1  LBERIC2  1 0 176.8 838.0 400   7.71   23.692 -74.555  2.289
LDIVAC11 LDIVAC12 1 0 347.8 229.3 1200  4.41   26.373 -8.943   3.440
LDIVAC51 LDIVAC11 1 0 026.1 407.3 300   1.9424 6.609  -756.819 84.077
LDIVAC51 LDIVAC21 1 0 822.2 740.5 150   1.469  40.475 -38.8069 6.3186
LDIVAC51 LDIVAC21 2 0 561.7 246.8 150   5.317  51.494 -01.1605 6.8633
##R
LDIVAC11 LDIVAC12 1     0  0   0     0  3.40    90 32   0     1 SYMM
LDIVAC51 LDIVAC11 1   3.8 12  -1     0                          
LDIVAC51 LDIVAC21 1   1.9 12  -1     0                          
LDIVAC51 LDIVAC21 2   8.2 12  -1     0                          
